
#======================================================================
# CRYSTAL DATA
#----------------------------------------------------------------------
data_VESTA_phase_1

_chemical_name_common                  'Ni12 Sb24 O72                         '
_cell_length_a                         9.414376
_cell_length_b                         10.473716
_cell_length_c                         25.327488
_cell_angle_alpha                      95.027527
_cell_angle_beta                       90.000000
_cell_angle_gamma                      90.000000
_cell_volume                           2487.770848
_space_group_name_H-M_alt              'P 1'
_space_group_IT_number                 1

loop_
_space_group_symop_operation_xyz
   'x, y, z'

loop_
   _atom_site_label
   _atom_site_occupancy
   _atom_site_fract_x
   _atom_site_fract_y
   _atom_site_fract_z
   _atom_site_adp_type
   _atom_site_U_iso_or_equiv
   _atom_site_type_symbol
   Ni1        1.0     0.265276     0.254741     0.152896    Uiso  ? Ni
   Ni2        1.0     0.765276     0.254741     0.152896    Uiso  ? Ni
   Ni3        1.0     0.250000     0.083333     0.333333    Uiso  ? Ni
   Ni4        1.0     0.750000     0.083333     0.333333    Uiso  ? Ni
   Ni5        1.0     0.242619     0.913661     0.490182    Uiso  ? Ni
   Ni6        1.0     0.742619     0.913661     0.490182    Uiso  ? Ni
   Ni7        1.0     0.007381     0.413661     0.490182    Uiso  ? Ni
   Ni8        1.0     0.507381     0.413661     0.490182    Uiso  ? Ni
   Ni9        1.0     0.984724     0.754741     0.152896    Uiso  ? Ni
   Ni10       1.0     0.484724     0.754741     0.152896    Uiso  ? Ni
   Ni11       1.0     0.000000     0.583333     0.333333    Uiso  ? Ni
   Ni12       1.0     0.500000     0.583333     0.333333    Uiso  ? Ni
   Sb1        1.0     0.256534     0.977405     0.113771    Uiso  ? Sb
   Sb2        1.0     0.756534     0.977405     0.113771    Uiso  ? Sb
   Sb3        1.0     0.249775     0.805797     0.276267    Uiso  ? Sb
   Sb4        1.0     0.749775     0.805797     0.276267    Uiso  ? Sb
   Sb5        1.0     0.241551     0.636555     0.449123    Uiso  ? Sb
   Sb6        1.0     0.741551     0.636555     0.449123    Uiso  ? Sb
   Sb7        1.0     0.993466     0.477405     0.113771    Uiso  ? Sb
   Sb8        1.0     0.493466     0.477405     0.113771    Uiso  ? Sb
   Sb9        1.0     0.000225     0.305797     0.276267    Uiso  ? Sb
   Sb10       1.0     0.500225     0.305797     0.276267    Uiso  ? Sb
   Sb11       1.0     0.008449     0.136555     0.449123    Uiso  ? Sb
   Sb12       1.0     0.508449     0.136555     0.449123    Uiso  ? Sb
   Sb13       1.0     0.247054     0.528213     0.221073    Uiso  ? Sb
   Sb14       1.0     0.747054     0.528213     0.221073    Uiso  ? Sb
   Sb15       1.0     0.255308     0.358256     0.388496    Uiso  ? Sb
   Sb16       1.0     0.755307     0.358256     0.388496    Uiso  ? Sb
   Sb17       1.0     0.002946     0.028213     0.221073    Uiso  ? Sb
   Sb18       1.0     0.502946     0.028213     0.221073    Uiso  ? Sb
   Sb19       1.0     0.994693     0.858256     0.388496    Uiso  ? Sb
   Sb20       1.0     0.494692     0.858256     0.388496    Uiso  ? Sb
   O1         1.0     0.393460     0.326615     0.093459    Uiso  ? O
   O2         1.0     0.893460     0.326615     0.093459    Uiso  ? O
   O3         1.0     0.402150     0.136099     0.279894    Uiso  ? O
   O4         1.0     0.902150     0.136099     0.279894    Uiso  ? O
   O5         1.0     0.394735     0.969687     0.447416    Uiso  ? O
   O6         1.0     0.894735     0.969687     0.447416    Uiso  ? O
   O7         1.0     0.103963     0.197511     0.217531    Uiso  ? O
   O8         1.0     0.603963     0.197511     0.217531    Uiso  ? O
   O9         1.0     0.097681     0.027678     0.386696    Uiso  ? O
   O10        1.0     0.597681     0.027678     0.386696    Uiso  ? O
   O11        1.0     0.146037     0.697511     0.217531    Uiso  ? O
   O12        1.0     0.646037     0.697511     0.217531    Uiso  ? O
   O13        1.0     0.152319     0.527678     0.386696    Uiso  ? O
   O14        1.0     0.652319     0.527678     0.386696    Uiso  ? O
   O15        1.0     0.356540     0.826615     0.093459    Uiso  ? O
   O16        1.0     0.856540     0.826615     0.093459    Uiso  ? O
   O17        1.0     0.347850     0.636099     0.279894    Uiso  ? O
   O18        1.0     0.847850     0.636099     0.279894    Uiso  ? O
   O19        1.0     0.355265     0.469687     0.447416    Uiso  ? O
   O20        1.0     0.855265     0.469687     0.447416    Uiso  ? O
   O21        1.0     0.392797     0.863795     0.221805    Uiso  ? O
   O22        1.0     0.892797     0.863795     0.221805    Uiso  ? O
   O23        1.0     0.390924     0.692762     0.394982    Uiso  ? O
   O24        1.0     0.890924     0.692762     0.394982    Uiso  ? O
   O25        1.0     0.103609     0.922628     0.160761    Uiso  ? O
   O26        1.0     0.603609     0.922628     0.160761    Uiso  ? O
   O27        1.0     0.105024     0.758671     0.331598    Uiso  ? O
   O28        1.0     0.605024     0.758671     0.331598    Uiso  ? O
   O29        1.0     0.107796     0.559478     0.499684    Uiso  ? O
   O30        1.0     0.607796     0.559478     0.499684    Uiso  ? O
   O31        1.0     0.146391     0.422628     0.160761    Uiso  ? O
   O32        1.0     0.646391     0.422628     0.160761    Uiso  ? O
   O33        1.0     0.144976     0.258671     0.331598    Uiso  ? O
   O34        1.0     0.644976     0.258671     0.331598    Uiso  ? O
   O35        1.0     0.142204     0.059478     0.499684    Uiso  ? O
   O36        1.0     0.642204     0.059478     0.499684    Uiso  ? O
   O37        1.0     0.357203     0.363795     0.221805    Uiso  ? O
   O38        1.0     0.857203     0.363795     0.221805    Uiso  ? O
   O39        1.0     0.359076     0.192762     0.394982    Uiso  ? O
   O40        1.0     0.859076     0.192762     0.394982    Uiso  ? O
   O41        1.0     0.101947     0.472570     0.272235    Uiso  ? O
   O42        1.0     0.601947     0.472570     0.272235    Uiso  ? O
   O43        1.0     0.119962     0.299591     0.441514    Uiso  ? O
   O44        1.0     0.619962     0.299591     0.441514    Uiso  ? O
   O45        1.0     0.068714     0.626682     0.088419    Uiso  ? O
   O46        1.0     0.568714     0.626682     0.088419    Uiso  ? O
   O47        1.0     0.382928     0.585642     0.166702    Uiso  ? O
   O48        1.0     0.882928     0.585642     0.166702    Uiso  ? O
   O49        1.0     0.394976     0.407996     0.335069    Uiso  ? O
   O50        1.0     0.894976     0.407996     0.335069    Uiso  ? O
   O51        1.0     0.432665     0.259559     0.506917    Uiso  ? O
   O52        1.0     0.932665     0.259559     0.506917    Uiso  ? O
   O53        1.0     0.367072     0.085642     0.166702    Uiso  ? O
   O54        1.0     0.867072     0.085642     0.166702    Uiso  ? O
   O55        1.0     0.355024     0.907996     0.335069    Uiso  ? O
   O56        1.0     0.855024     0.907996     0.335069    Uiso  ? O
   O57        1.0     0.317335     0.759559     0.506917    Uiso  ? O
   O58        1.0     0.817335     0.759559     0.506917    Uiso  ? O
   O59        1.0     0.181286     0.126682     0.088419    Uiso  ? O
   O60        1.0     0.681286     0.126682     0.088419    Uiso  ? O
   O61        1.0     0.148053     0.972570     0.272235    Uiso  ? O
   O62        1.0     0.648053     0.972570     0.272235    Uiso  ? O
   O63        1.0     0.130038     0.799591     0.441514    Uiso  ? O
   O64        1.0     0.630038     0.799591     0.441514    Uiso  ? O
